COM1r flow through sand_tony
ROCKS----1----*----2----*----3----*----4----*----5----*----6----*----7----*----8
SANDT    1 2.600e+03 4.670e-01 1.000e-12 1.000e-12 1.000e-12 2.510e+00 1.000e+03
   1.1e-09
BOTBC    1 2.600e+03 4.670e-01 1.000e-12 1.000e-12 1.000e-12 2.510e+00 1.000e+03
   1.1e-09
TOPBC    1 2.600e+03 4.670e-01 1.000e-12 1.000e-12 1.000e-12 2.510e+00 1.000e+03
   1.1e-09
REFCO      1.01325E5     20.00     1000.    1.0e-3
SEED                                          0.01

MULTI----1----*----2----*----3----*----4----*----5----*----6----*----7----*----8
    1    1    1    6

START----1----*----2----*----3----*----4----*----5----*----6----*----7----*----8
----*----1 MOP: 123456789*123456789*1234 ---*----5----*----6----*----7----*----8
PARAM----1----*----2----*----3----*----4----*----5----*----6----*----7----*----8
 8 39999        500100030000022000400003
0.0000E+002.8060E-011.4047E-051.4047E-05             0.0000        4.
     1.E-5
             101325.
GENER----1----*----2----*----3----*----4----*----5----*----6----*----7----*----8
 B  5    1                         COM1   1.000E-2  
 B  6    1                         COM1   1.000E-2 
 B  7    1                         COM1   1.000E-2 
 B  8    1                         COM1   1.000E-2 
 B  9    1                         COM1   1.000E-2 
 B 10    1                         COM1   1.000E-2 
 B 11    1                         COM1   1.000E-2 
 B 12    1                         COM1   1.000E-2 
 B 13    1                         COM1   1.000E-2 
 B 14    1                         COM1   1.000E-2 
 B 15    1                         COM1   1.000E-2
 B 16    1                         COM1   1.000E-2
 B 17    1                         COM1   1.000E-2
 B 18    1                         COM1   1.000E-2
 B 19    1                         COM1   1.000E-2
 B 20    1                         COM1   1.000E-2
 B 21    1                         COM1   1.000E-2
 B 22    1                         COM1   1.000E-2
 B 23    1                         COM1   1.000E-2
 B 24    1                         COM1   1.000E-2
 B 25    1                         COM1   1.000E-2
 B 26    1                         COM1   1.000E-2
 B 27    1                         COM1   1.000E-2
 B 28    1                         COM1   1.000E-2
 B 29    1                         COM1   1.000E-2
 B 30    1                         COM1   1.000E-2
 B 31    1                         COM1   1.000E-2
 B 32    1                         COM1   1.000E-2
 B 33    1                         COM1   1.000E-2
 B 34    1                         COM1   1.000E-2
 B 35    1                         COM1   1.000E-2
 B 36    1                         COM1   1.000E-2
 B 37    1                         COM1   1.000E-2
 B 38    1                         COM1   1.000E-2
 B 39    1                         COM1   1.000E-2
 B 40    1                         COM1   1.000E-2
 B 41    1                         COM1   1.000E-2
 B 42    1                         COM1   1.000E-2
 B 43    1                         COM1   1.000E-2
 B 44    1                         COM1   1.000E-2
 B 45    1                         COM1   1.000E-2
 B 46    1                         COM1   1.000E-2
 B 47    1                         COM1   1.000E-2
 B 48    1                         COM1   1.000E-2
 B 49    1                         COM1   1.000E-2
 B 50    1                         COM1   1.000E-2
 B 51    1                         COM1   1.000E-2
 B 52    1                         COM1   1.000E-2
 B 53    1                         COM1   1.000E-2
 B 54    1                         COM1   1.000E-2
 B 55    1                         COM1   1.000E-2
 B 56    1                         COM1   1.000E-2
 B 57    1                         COM1   1.000E-2
 B 58    1                         COM1   1.000E-2
 B 59    1                         COM1   1.000E-2
 B 60    1                         COM1   1.000E-2
 B 61    1                         COM1   1.000E-2
 B 62    1                         COM1   1.000E-2
 B 63    1                         COM1   1.000E-2
 B 64    1                         COM1   1.000E-2
 B 65    1                         COM1   1.000E-2
 B 66    1                         COM1   1.000E-2
 B 67    1                         COM1   1.000E-2
 B 68    1                         COM1   1.000E-2
 B 69    1                         COM1   1.000E-2
 B 70    1                         COM1   1.000E-2
 B 71    1                         COM1   1.000E-2
 B 72    1                         COM1   1.000E-2
 B 73    1                         COM1   1.000E-2
 B 74    1                         COM1   1.000E-2
 B 75    1                         COM1   1.000E-2
 B 76    1                         COM1   1.000E-2
 B 77    1                         COM1   1.000E-2
 B 78    1                         COM1   1.000E-2
 B 79    1                         COM1   1.000E-2
 B 80    1                         COM1   1.000E-2
 B 81    1                         COM1   1.000E-2
 B 82    1                         COM1   1.000E-2
 B 83    1                         COM1   1.000E-2
 B 84    1                         COM1   1.000E-2
 B 85    1                         COM1   1.000E-2
 B 86    1                         COM1   1.000E-2
 B 87    1                         COM1   1.000E-2
 B 88    1                         COM1   1.000E-2
 B 89    1                         COM1   1.000E-2
 B 90    1                         COM1   1.000E-2
 B 91    1                         COM1   1.000E-2
 B 92    1                         COM1   1.000E-2
 B 93    1                         COM1   1.000E-2
 B 94    1                         COM1   1.000E-2
 B 95    1                         COM1   1.000E-2
 B 96    1                         COM1   1.000E-2
 B 97    1                         COM1   1.000E-2
 B 98    1                         COM1   1.000E-2
 B 99    1                         COM1   1.000E-2
 BA 0    1                         COM1   1.000E-2
 BA 1    1                         COM1   1.000E-2
 BA 2    1                         COM1   1.000E-2
 BA 3    1                         COM1   1.000E-2
 BA 4    1                         COM1   1.000E-2
 
FOFT ----1----*----2----*----3----*----4----*----5----*----6----*----7----*----8
    1
 A  6

INDOM----1----*----2----*----3----*----4----*----5----*----6----*----7----*----8
BOTBC           0.47600000E+00
 0.1013250000000E+06 0.0000000000000E+00

INCON----1----*----2----*----3----*----4----*----5----*----6----*----7----*----8

TIMES----1----*----2----*----3----*----4----*----5----*----6----*----7----*----8
    2    2
     0.E01     1.E01

ELEME
    1          SANDT0.1000E-050.1000E-031.3233E+050.5000E-020.5000E-020.5000E-02
    2          SANDT0.1000E-050.1000E-031.3233E+050.1500E-010.5000E-020.5000E-02
    3          SANDT0.1000E-050.1000E-031.3233E+050.2500E-010.5000E-020.5000E-02
    4          SANDT0.1000E-050.1000E-031.3233E+050.3500E-010.5000E-020.5000E-02
    5          SANDT0.1000E-050.1000E-031.3233E+050.4500E-010.5000E-020.5000E-02
    6          SANDT0.1000E-050.1000E-031.3233E+050.5500E-010.5000E-020.5000E-02
    7          SANDT0.1000E-050.1000E-031.3233E+050.6500E-010.5000E-020.5000E-02
    8          SANDT0.1000E-050.1000E-031.3233E+050.7500E-010.5000E-020.5000E-02
    9          SANDT0.1000E-050.1000E-031.3233E+050.8500E-010.5000E-020.5000E-02
   10          SANDT0.1000E-050.1000E-031.3233E+050.9500E-010.5000E-020.5000E-02
   11          SANDT0.1000E-050.1000E-031.3233E+050.5000E-020.1500E-010.5000E-02
   12          SANDT0.1000E-050.1000E-031.3233E+050.1500E-010.1500E-010.5000E-02
   13          SANDT0.1000E-050.1000E-031.3233E+050.2500E-010.1500E-010.5000E-02
   14          SANDT0.1000E-050.1000E-031.3233E+050.3500E-010.1500E-010.5000E-02
   15          SANDT0.1000E-050.1000E-031.3233E+050.4500E-010.1500E-010.5000E-02
   16          SANDT0.1000E-050.1000E-031.3233E+050.5500E-010.1500E-010.5000E-02
   17          SANDT0.1000E-050.1000E-031.3233E+050.6500E-010.1500E-010.5000E-02
   18          SANDT0.1000E-050.1000E-031.3233E+050.7500E-010.1500E-010.5000E-02
   19          SANDT0.1000E-050.1000E-031.3233E+050.8500E-010.1500E-010.5000E-02
   20          SANDT0.1000E-050.1000E-031.3233E+050.9500E-010.1500E-010.5000E-02
   21          SANDT0.1000E-050.1000E-031.3233E+050.5000E-020.2500E-010.5000E-02
   22          SANDT0.1000E-050.1000E-031.3233E+050.1500E-010.2500E-010.5000E-02
   23          SANDT0.1000E-050.1000E-031.3233E+050.2500E-010.2500E-010.5000E-02
   24          SANDT0.1000E-050.1000E-031.3233E+050.3500E-010.2500E-010.5000E-02
   25          SANDT0.1000E-050.1000E-031.3233E+050.4500E-010.2500E-010.5000E-02
   26          SANDT0.1000E-050.1000E-031.3233E+050.5500E-010.2500E-010.5000E-02
   27          SANDT0.1000E-050.1000E-031.3233E+050.6500E-010.2500E-010.5000E-02
   28          SANDT0.1000E-050.1000E-031.3233E+050.7500E-010.2500E-010.5000E-02
   29          SANDT0.1000E-050.1000E-031.3233E+050.8500E-010.2500E-010.5000E-02
   30          SANDT0.1000E-050.1000E-031.3233E+050.9500E-010.2500E-010.5000E-02
   31          SANDT0.1000E-050.1000E-031.4480E+040.5000E-020.3500E-010.5000E-02
   32          SANDT0.1000E-050.1000E-031.2657E+040.1500E-010.3500E-010.5000E-02
   33          SANDT0.1000E-050.1000E-031.2653E+040.2500E-010.3500E-010.5000E-02
   34          SANDT0.1000E-050.1000E-031.2395E+040.3500E-010.3500E-010.5000E-02
   35          SANDT0.1000E-050.1000E-031.2973E+040.4500E-010.3500E-010.5000E-02
   36          SANDT0.1000E-050.1000E-031.2983E+040.5500E-010.3500E-010.5000E-02
   37          SANDT0.1000E-050.1000E-031.2317E+040.6500E-010.3500E-010.5000E-02
   38          SANDT0.1000E-050.1000E-031.2763E+040.7500E-010.3500E-010.5000E-02
   39          SANDT0.1000E-050.1000E-031.2743E+040.8500E-010.3500E-010.5000E-02
   40          SANDT0.1000E-050.1000E-031.4462E+040.9500E-010.3500E-010.5000E-02
   41          SANDT0.1000E-050.1000E-031.3642E+040.5000E-020.4500E-010.5000E-02
   42          SANDT0.1000E-050.1000E-031.2796E+040.1500E-010.4500E-010.5000E-02
   43          SANDT0.1000E-050.1000E-031.3526E+040.2500E-010.4500E-010.5000E-02
   44          SANDT0.1000E-050.1000E-031.3527E+040.3500E-010.4500E-010.5000E-02
   45          SANDT0.1000E-050.1000E-031.3680E+040.4500E-010.4500E-010.5000E-02
   46          SANDT0.1000E-050.1000E-031.3740E+040.5500E-010.4500E-010.5000E-02
   47          SANDT0.1000E-050.1000E-031.3578E+040.6500E-010.4500E-010.5000E-02
   48          SANDT0.1000E-050.1000E-031.3545E+040.7500E-010.4500E-010.5000E-02
   49          SANDT0.1000E-050.1000E-031.2797E+040.8500E-010.4500E-010.5000E-02
   50          SANDT0.1000E-050.1000E-031.3626E+040.9500E-010.4500E-010.5000E-02
   51          SANDT0.1000E-050.1000E-031.3734E+040.5000E-020.5500E-010.5000E-02
   52          SANDT0.1000E-050.1000E-031.2949E+040.1500E-010.5500E-010.5000E-02
   53          SANDT0.1000E-050.1000E-031.3413E+040.2500E-010.5500E-010.5000E-02
   54          SANDT0.1000E-050.1000E-031.3957E+040.3500E-010.5500E-010.5000E-02
   55          SANDT0.1000E-050.1000E-031.3880E+040.4500E-010.5500E-010.5000E-02
   56          SANDT0.1000E-050.1000E-031.3862E+040.5500E-010.5500E-010.5000E-02
   57          SANDT0.1000E-050.1000E-031.3910E+040.6500E-010.5500E-010.5000E-02
   58          SANDT0.1000E-050.1000E-031.3420E+040.7500E-010.5500E-010.5000E-02
   59          SANDT0.1000E-050.1000E-031.2948E+040.8500E-010.5500E-010.5000E-02
   60          SANDT0.1000E-050.1000E-031.3727E+040.9500E-010.5500E-010.5000E-02
   61          SANDT0.1000E-050.1000E-031.3846E+040.5000E-020.6500E-010.5000E-02
   62          SANDT0.1000E-050.1000E-031.3084E+040.1500E-010.6500E-010.5000E-02
   63          SANDT0.1000E-050.1000E-031.3533E+040.2500E-010.6500E-010.5000E-02
   64          SANDT0.1000E-050.1000E-031.4095E+040.3500E-010.6500E-010.5000E-02
   65          SANDT0.1000E-050.1000E-031.4263E+040.4500E-010.6500E-010.5000E-02
   66          SANDT0.1000E-050.1000E-031.4275E+040.5500E-010.6500E-010.5000E-02
   67          SANDT0.1000E-050.1000E-031.4021E+040.6500E-010.6500E-010.5000E-02
   68          SANDT0.1000E-050.1000E-031.3541E+040.7500E-010.6500E-010.5000E-02
   69          SANDT0.1000E-050.1000E-031.3063E+040.8500E-010.6500E-010.5000E-02
   70          SANDT0.1000E-050.1000E-031.3835E+040.9500E-010.6500E-010.5000E-02
   71          SANDT0.1000E-050.1000E-031.4001E+040.5000E-020.7500E-010.5000E-02
   72          SANDT0.1000E-050.1000E-031.3438E+040.1500E-010.7500E-010.5000E-02
   73          SANDT0.1000E-050.1000E-031.3606E+040.2500E-010.7500E-010.5000E-02
   74          SANDT0.1000E-050.1000E-031.3841E+040.3500E-010.7500E-010.5000E-02
   75          SANDT0.1000E-050.1000E-031.4412E+040.4500E-010.7500E-010.5000E-02
   76          SANDT0.1000E-050.1000E-031.4345E+040.5500E-010.7500E-010.5000E-02
   77          SANDT0.1000E-050.1000E-031.3853E+040.6500E-010.7500E-010.5000E-02
   78          SANDT0.1000E-050.1000E-031.3611E+040.7500E-010.7500E-010.5000E-02
   79          SANDT0.1000E-050.1000E-031.3430E+040.8500E-010.7500E-010.5000E-02
   80          SANDT0.1000E-050.1000E-031.3987E+040.9500E-010.7500E-010.5000E-02
   81          SANDT0.1000E-050.1000E-031.4321E+040.5000E-020.8500E-010.5000E-02
   82          SANDT0.1000E-050.1000E-031.3591E+040.1500E-010.8500E-010.5000E-02
   83          SANDT0.1000E-050.1000E-031.3834E+040.2500E-010.8500E-010.5000E-02
   84          SANDT0.1000E-050.1000E-031.4051E+040.3500E-010.8500E-010.5000E-02
   85          SANDT0.1000E-050.1000E-031.3930E+040.4500E-010.8500E-010.5000E-02
   86          SANDT0.1000E-050.1000E-031.3887E+040.5500E-010.8500E-010.5000E-02
   87          SANDT0.1000E-050.1000E-031.4065E+040.6500E-010.8500E-010.5000E-02
   88          SANDT0.1000E-050.1000E-031.3835E+040.7500E-010.8500E-010.5000E-02
   89          SANDT0.1000E-050.1000E-031.3604E+040.8500E-010.8500E-010.5000E-02
   90          SANDT0.1000E-050.1000E-031.4304E+040.9500E-010.8500E-010.5000E-02
   91          SANDT0.1000E-050.1000E-031.4697E+040.5000E-020.9500E-010.5000E-02
   92          SANDT0.1000E-050.1000E-031.3666E+040.1500E-010.9500E-010.5000E-02
   93          SANDT0.1000E-050.1000E-031.4157E+040.2500E-010.9500E-010.5000E-02
   94          SANDT0.1000E-050.1000E-031.3750E+040.3500E-010.9500E-010.5000E-02
   95          SANDT0.1000E-050.1000E-031.3326E+040.4500E-010.9500E-010.5000E-02
   96          SANDT0.1000E-050.1000E-031.3330E+040.5500E-010.9500E-010.5000E-02
   97          SANDT0.1000E-050.1000E-031.3736E+040.6500E-010.9500E-010.5000E-02
   98          SANDT0.1000E-050.1000E-031.4141E+040.7500E-010.9500E-010.5000E-02
   99          SANDT0.1000E-050.1000E-031.3655E+040.8500E-010.9500E-010.5000E-02
  A 0          SANDT0.1000E-050.1000E-031.4705E+040.9500E-010.9500E-010.5000E-02
  A 1          SANDT0.1000E-050.1000E-031.5030E+040.5000E-020.1050E+000.5000E-02
  A 2          SANDT0.1000E-050.1000E-031.3313E+040.1500E-010.1050E+000.5000E-02
  A 3          SANDT0.1000E-050.1000E-031.3690E+040.2500E-010.1050E+000.5000E-02
  A 4          SANDT0.1000E-050.1000E-031.3147E+040.3500E-010.1050E+000.5000E-02
  A 5          SANDT0.1000E-050.1000E-031.1381E+040.4500E-010.1050E+000.5000E-02
  A 6          SANDT0.1000E-050.1000E-031.1328E+040.5500E-010.1050E+000.5000E-02
  A 7          SANDT0.1000E-050.1000E-031.3198E+040.6500E-010.1050E+000.5000E-02
  A 8          SANDT0.1000E-050.1000E-031.3730E+040.7500E-010.1050E+000.5000E-02
  A 9          SANDT0.1000E-050.1000E-031.3283E+040.8500E-010.1050E+000.5000E-02
  A10          SANDT0.1000E-050.1000E-031.4990E+040.9500E-010.1050E+000.5000E-02
  A11          SANDT0.1000E-050.1000E-031.4777E+040.5000E-020.1150E+000.5000E-02
  A12          SANDT0.1000E-050.1000E-031.2638E+040.1500E-010.1150E+000.5000E-02
  A13          SANDT0.1000E-050.1000E-031.3110E+040.2500E-010.1150E+000.5000E-02
  A14          SANDT0.1000E-050.1000E-031.2397E+040.3500E-010.1150E+000.5000E-02
  A15          SANDT0.1000E-050.1000E-031.0551E+040.4500E-010.1150E+000.5000E-02
  A16          SANDT0.1000E-050.1000E-031.0714E+040.5500E-010.1150E+000.5000E-02
  A17          SANDT0.1000E-050.1000E-031.2183E+040.6500E-010.1150E+000.5000E-02
  A18          SANDT0.1000E-050.1000E-031.3210E+040.7500E-010.1150E+000.5000E-02
  A19          SANDT0.1000E-050.1000E-031.2613E+040.8500E-010.1150E+000.5000E-02
  A20          SANDT0.1000E-050.1000E-031.4707E+040.9500E-010.1150E+000.5000E-02
  A21          SANDT0.1000E-050.1000E-031.4232E+040.5000E-020.1250E+000.5000E-02
  A22          SANDT0.1000E-050.1000E-031.2178E+040.1500E-010.1250E+000.5000E-02
  A23          SANDT0.1000E-050.1000E-031.2296E+040.2500E-010.1250E+000.5000E-02
  A24          SANDT0.1000E-050.1000E-031.2100E+040.3500E-010.1250E+000.5000E-02
  A25          SANDT0.1000E-050.1000E-031.0913E+040.4500E-010.1250E+000.5000E-02
  A26          SANDT0.1000E-050.1000E-031.1046E+040.5500E-010.1250E+000.5000E-02
  A27          SANDT0.1000E-050.1000E-031.1948E+040.6500E-010.1250E+000.5000E-02
  A28          SANDT0.1000E-050.1000E-031.2378E+040.7500E-010.1250E+000.5000E-02
  A29          SANDT0.1000E-050.1000E-031.2205E+040.8500E-010.1250E+000.5000E-02
  A30          SANDT0.1000E-050.1000E-031.4218E+040.9500E-010.1250E+000.5000E-02
  A31          SANDT0.1000E-050.1000E-031.1106E+040.5000E-020.1350E+000.5000E-02
  A32          SANDT0.1000E-050.1000E-031.1341E+040.1500E-010.1350E+000.5000E-02
  A33          SANDT0.1000E-050.1000E-039.6365E+030.2500E-010.1350E+000.5000E-02
  A34          SANDT0.1000E-050.1000E-038.7200E+030.3500E-010.1350E+000.5000E-02
  A35          SANDT0.1000E-050.1000E-031.0213E+040.4500E-010.1350E+000.5000E-02
  A36          SANDT0.1000E-050.1000E-039.0101E+030.5500E-010.1350E+000.5000E-02
  A37          SANDT0.1000E-050.1000E-039.0028E+030.6500E-010.1350E+000.5000E-02
  A38          SANDT0.1000E-050.1000E-039.5391E+030.7500E-010.1350E+000.5000E-02
  A39          SANDT0.1000E-050.1000E-031.1462E+040.8500E-010.1350E+000.5000E-02
  A40          SANDT0.1000E-050.1000E-031.0943E+040.9500E-010.1350E+000.5000E-02
  A41          SANDT0.1000E-050.1000E-039.5077E+030.5000E-020.1450E+000.5000E-02
  A42          SANDT0.1000E-050.1000E-031.1834E+040.1500E-010.1450E+000.5000E-02
  A43          SANDT0.1000E-050.1000E-037.2704E+030.2500E-010.1450E+000.5000E-02
  A44          SANDT0.1000E-050.1000E-037.0173E+030.3500E-010.1450E+000.5000E-02
  A45          SANDT0.1000E-050.1000E-031.1714E+040.4500E-010.1450E+000.5000E-02
  A46          SANDT0.1000E-050.1000E-031.0358E+040.5500E-010.1450E+000.5000E-02
  A47          SANDT0.1000E-050.1000E-037.3560E+030.6500E-010.1450E+000.5000E-02
  A48          SANDT0.1000E-050.1000E-037.7370E+030.7500E-010.1450E+000.5000E-02
  A49          SANDT0.1000E-050.1000E-031.1800E+040.8500E-010.1450E+000.5000E-02
  A50          SANDT0.1000E-050.1000E-039.0699E+030.9500E-010.1450E+000.5000E-02
  A51          SANDT0.1000E-050.1000E-039.4295E+030.5000E-020.1550E+000.5000E-02
  A52          SANDT0.1000E-050.1000E-039.9241E+030.1500E-010.1550E+000.5000E-02
  A53          SANDT0.1000E-050.1000E-037.0205E+030.2500E-010.1550E+000.5000E-02
  A54          SANDT0.1000E-050.1000E-038.2813E+030.3500E-010.1550E+000.5000E-02
  A55          SANDT0.1000E-050.1000E-039.8779E+030.4500E-010.1550E+000.5000E-02
  A56          SANDT0.1000E-050.1000E-039.3681E+030.5500E-010.1550E+000.5000E-02
  A57          SANDT0.1000E-050.1000E-038.9330E+030.6500E-010.1550E+000.5000E-02
  A58          SANDT0.1000E-050.1000E-037.1612E+030.7500E-010.1550E+000.5000E-02
  A59          SANDT0.1000E-050.1000E-031.0904E+040.8500E-010.1550E+000.5000E-02
  A60          SANDT0.1000E-050.1000E-039.9052E+030.9500E-010.1550E+000.5000E-02
  A61          SANDT0.1000E-050.1000E-038.5649E+030.5000E-020.1650E+000.5000E-02
  A62          SANDT0.1000E-050.1000E-036.9559E+030.1500E-010.1650E+000.5000E-02
  A63          SANDT0.1000E-050.1000E-036.4671E+030.2500E-010.1650E+000.5000E-02
  A64          SANDT0.1000E-050.1000E-037.4174E+030.3500E-010.1650E+000.5000E-02
  A65          SANDT0.1000E-050.1000E-036.6679E+030.4500E-010.1650E+000.5000E-02
  A66          SANDT0.1000E-050.1000E-037.1575E+030.5500E-010.1650E+000.5000E-02
  A67          SANDT0.1000E-050.1000E-038.3578E+030.6500E-010.1650E+000.5000E-02
  A68          SANDT0.1000E-050.1000E-036.5688E+030.7500E-010.1650E+000.5000E-02
  A69          SANDT0.1000E-050.1000E-037.7751E+030.8500E-010.1650E+000.5000E-02
  A70          SANDT0.1000E-050.1000E-038.7742E+030.9500E-010.1650E+000.5000E-02
  A71          SANDT0.1000E-050.1000E-037.1848E+030.5000E-020.1750E+000.5000E-02
  A72          SANDT0.1000E-050.1000E-034.7037E+030.1500E-010.1750E+000.5000E-02
  A73          SANDT0.1000E-050.1000E-034.5616E+030.2500E-010.1750E+000.5000E-02
  A74          SANDT0.1000E-050.1000E-036.3069E+030.3500E-010.1750E+000.5000E-02
  A75          SANDT0.1000E-050.1000E-036.5911E+030.4500E-010.1750E+000.5000E-02
  A76          SANDT0.1000E-050.1000E-036.7002E+030.5500E-010.1750E+000.5000E-02
  A77          SANDT0.1000E-050.1000E-036.7340E+030.6500E-010.1750E+000.5000E-02
  A78          SANDT0.1000E-050.1000E-035.4944E+030.7500E-010.1750E+000.5000E-02
  A79          SANDT0.1000E-050.1000E-034.8489E+030.8500E-010.1750E+000.5000E-02
  A80          SANDT0.1000E-050.1000E-037.2306E+030.9500E-010.1750E+000.5000E-02
  A81          SANDT0.1000E-050.1000E-036.1952E+030.5000E-020.1850E+000.5000E-02
  A82          SANDT0.1000E-050.1000E-033.9775E+030.1500E-010.1850E+000.5000E-02
  A83          SANDT0.1000E-050.1000E-033.0877E+030.2500E-010.1850E+000.5000E-02
  A84          SANDT0.1000E-050.1000E-034.3954E+030.3500E-010.1850E+000.5000E-02
  A85          SANDT0.1000E-050.1000E-036.2240E+030.4500E-010.1850E+000.5000E-02
  A86          SANDT0.1000E-050.1000E-035.8861E+030.5500E-010.1850E+000.5000E-02
  A87          SANDT0.1000E-050.1000E-036.1935E+030.6500E-010.1850E+000.5000E-02
  A88          SANDT0.1000E-050.1000E-033.6563E+030.7500E-010.1850E+000.5000E-02
  A89          SANDT0.1000E-050.1000E-034.0035E+030.8500E-010.1850E+000.5000E-02
  A90          SANDT0.1000E-050.1000E-036.4301E+030.9500E-010.1850E+000.5000E-02
  A91          SANDT0.1000E-050.1000E-031.2644E+040.5000E-020.1950E+000.5000E-02
  A92          SANDT0.1000E-050.1000E-035.2764E+030.1500E-010.1950E+000.5000E-02
  A93          SANDT0.1000E-050.1000E-034.7209E+030.2500E-010.1950E+000.5000E-02
  A94          SANDT0.1000E-050.1000E-035.7741E+030.3500E-010.1950E+000.5000E-02
  A95          SANDT0.1000E-050.1000E-038.6118E+030.4500E-010.1950E+000.5000E-02
  A96          SANDT0.1000E-050.1000E-039.3375E+030.5500E-010.1950E+000.5000E-02
  A97          SANDT0.1000E-050.1000E-035.2386E+030.6500E-010.1950E+000.5000E-02
  A98          SANDT0.1000E-050.1000E-036.1374E+030.7500E-010.1950E+000.5000E-02
  A99          SANDT0.1000E-050.1000E-035.4264E+030.8500E-010.1950E+000.5000E-02
  B 0          SANDT0.1000E-050.1000E-031.3424E+040.9500E-010.1950E+000.5000E-02
  B 1          SANDT0.1000E-050.0000E+001.3233E+050.5000E-020.5000E-020.1500E-01
  B 2          SANDT0.1000E-050.0000E+001.3233E+050.1500E-010.5000E-020.1500E-01
  B 3          SANDT0.1000E-050.0000E+001.3233E+050.2500E-010.5000E-020.1500E-01
  B 4          SANDT0.1000E-050.0000E+001.3233E+050.3500E-010.5000E-020.1500E-01
  B 5          SANDT0.1000E-050.0000E+001.3233E+050.4500E-010.5000E-020.1500E-01
  B 6          SANDT0.1000E-050.0000E+001.3233E+050.5500E-010.5000E-020.1500E-01
  B 7          SANDT0.1000E-050.0000E+001.3233E+050.6500E-010.5000E-020.1500E-01
  B 8          SANDT0.1000E-050.0000E+001.3233E+050.7500E-010.5000E-020.1500E-01
  B 9          SANDT0.1000E-050.0000E+001.3233E+050.8500E-010.5000E-020.1500E-01
  B10          SANDT0.1000E-050.0000E+001.3233E+050.9500E-010.5000E-020.1500E-01
  B11          SANDT0.1000E-050.0000E+001.3233E+050.5000E-020.1500E-010.1500E-01
  B12          SANDT0.1000E-050.0000E+001.3233E+050.1500E-010.1500E-010.1500E-01
  B13          SANDT0.1000E-050.0000E+001.3233E+050.2500E-010.1500E-010.1500E-01
  B14          SANDT0.1000E-050.0000E+001.3233E+050.3500E-010.1500E-010.1500E-01
  B15          SANDT0.1000E-050.0000E+001.3233E+050.4500E-010.1500E-010.1500E-01
  B16          SANDT0.1000E-050.0000E+001.3233E+050.5500E-010.1500E-010.1500E-01
  B17          SANDT0.1000E-050.0000E+001.3233E+050.6500E-010.1500E-010.1500E-01
  B18          SANDT0.1000E-050.0000E+001.3233E+050.7500E-010.1500E-010.1500E-01
  B19          SANDT0.1000E-050.0000E+001.3233E+050.8500E-010.1500E-010.1500E-01
  B20          SANDT0.1000E-050.0000E+001.3233E+050.9500E-010.1500E-010.1500E-01
  B21          SANDT0.1000E-050.0000E+001.3233E+050.5000E-020.2500E-010.1500E-01
  B22          SANDT0.1000E-050.0000E+001.3233E+050.1500E-010.2500E-010.1500E-01
  B23          SANDT0.1000E-050.0000E+001.3233E+050.2500E-010.2500E-010.1500E-01
  B24          SANDT0.1000E-050.0000E+001.3233E+050.3500E-010.2500E-010.1500E-01
  B25          SANDT0.1000E-050.0000E+001.3233E+050.4500E-010.2500E-010.1500E-01
  B26          SANDT0.1000E-050.0000E+001.3233E+050.5500E-010.2500E-010.1500E-01
  B27          SANDT0.1000E-050.0000E+001.3233E+050.6500E-010.2500E-010.1500E-01
  B28          SANDT0.1000E-050.0000E+001.3233E+050.7500E-010.2500E-010.1500E-01
  B29          SANDT0.1000E-050.0000E+001.3233E+050.8500E-010.2500E-010.1500E-01
  B30          SANDT0.1000E-050.0000E+001.3233E+050.9500E-010.2500E-010.1500E-01
  B31          SANDT0.1000E-050.0000E+001.2694E+040.5000E-020.3500E-010.1500E-01
  B32          SANDT0.1000E-050.0000E+001.0959E+040.1500E-010.3500E-010.1500E-01
  B33          SANDT0.1000E-050.0000E+001.1118E+040.2500E-010.3500E-010.1500E-01
  B34          SANDT0.1000E-050.0000E+009.8694E+030.3500E-010.3500E-010.1500E-01
  B35          SANDT0.1000E-050.0000E+001.1796E+040.4500E-010.3500E-010.1500E-01
  B36          SANDT0.1000E-050.0000E+001.1678E+040.5500E-010.3500E-010.1500E-01
  B37          SANDT0.1000E-050.0000E+009.8869E+030.6500E-010.3500E-010.1500E-01
  B38          SANDT0.1000E-050.0000E+001.1041E+040.7500E-010.3500E-010.1500E-01
  B39          SANDT0.1000E-050.0000E+001.1018E+040.8500E-010.3500E-010.1500E-01
  B40          SANDT0.1000E-050.0000E+001.2798E+040.9500E-010.3500E-010.1500E-01
  B41          SANDT0.1000E-050.0000E+001.2762E+040.5000E-020.4500E-010.1500E-01
  B42          SANDT0.1000E-050.0000E+001.2247E+040.1500E-010.4500E-010.1500E-01
  B43          SANDT0.1000E-050.0000E+001.3036E+040.2500E-010.4500E-010.1500E-01
  B44          SANDT0.1000E-050.0000E+001.2823E+040.3500E-010.4500E-010.1500E-01
  B45          SANDT0.1000E-050.0000E+001.2923E+040.4500E-010.4500E-010.1500E-01
  B46          SANDT0.1000E-050.0000E+001.2741E+040.5500E-010.4500E-010.1500E-01
  B47          SANDT0.1000E-050.0000E+001.2872E+040.6500E-010.4500E-010.1500E-01
  B48          SANDT0.1000E-050.0000E+001.3036E+040.7500E-010.4500E-010.1500E-01
  B49          SANDT0.1000E-050.0000E+001.2176E+040.8500E-010.4500E-010.1500E-01
  B50          SANDT0.1000E-050.0000E+001.2779E+040.9500E-010.4500E-010.1500E-01
  B51          SANDT0.1000E-050.0000E+001.2953E+040.5000E-020.5500E-010.1500E-01
  B52          SANDT0.1000E-050.0000E+001.2239E+040.1500E-010.5500E-010.1500E-01
  B53          SANDT0.1000E-050.0000E+001.3328E+040.2500E-010.5500E-010.1500E-01
  B54          SANDT0.1000E-050.0000E+001.3342E+040.3500E-010.5500E-010.1500E-01
  B55          SANDT0.1000E-050.0000E+001.3550E+040.4500E-010.5500E-010.1500E-01
  B56          SANDT0.1000E-050.0000E+001.3381E+040.5500E-010.5500E-010.1500E-01
  B57          SANDT0.1000E-050.0000E+001.3446E+040.6500E-010.5500E-010.1500E-01
  B58          SANDT0.1000E-050.0000E+001.3327E+040.7500E-010.5500E-010.1500E-01
  B59          SANDT0.1000E-050.0000E+001.2235E+040.8500E-010.5500E-010.1500E-01
  B60          SANDT0.1000E-050.0000E+001.2987E+040.9500E-010.5500E-010.1500E-01
  B61          SANDT0.1000E-050.0000E+001.3082E+040.5000E-020.6500E-010.1500E-01
  B62          SANDT0.1000E-050.0000E+001.2616E+040.1500E-010.6500E-010.1500E-01
  B63          SANDT0.1000E-050.0000E+001.3570E+040.2500E-010.6500E-010.1500E-01
  B64          SANDT0.1000E-050.0000E+001.3338E+040.3500E-010.6500E-010.1500E-01
  B65          SANDT0.1000E-050.0000E+001.3244E+040.4500E-010.6500E-010.1500E-01
  B66          SANDT0.1000E-050.0000E+001.3229E+040.5500E-010.6500E-010.1500E-01
  B67          SANDT0.1000E-050.0000E+001.3313E+040.6500E-010.6500E-010.1500E-01
  B68          SANDT0.1000E-050.0000E+001.3586E+040.7500E-010.6500E-010.1500E-01
  B69          SANDT0.1000E-050.0000E+001.2617E+040.8500E-010.6500E-010.1500E-01
  B70          SANDT0.1000E-050.0000E+001.3119E+040.9500E-010.6500E-010.1500E-01
  B71          SANDT0.1000E-050.0000E+001.3433E+040.5000E-020.7500E-010.1500E-01
  B72          SANDT0.1000E-050.0000E+001.3479E+040.1500E-010.7500E-010.1500E-01
  B73          SANDT0.1000E-050.0000E+001.3897E+040.2500E-010.7500E-010.1500E-01
  B74          SANDT0.1000E-050.0000E+001.3814E+040.3500E-010.7500E-010.1500E-01
  B75          SANDT0.1000E-050.0000E+001.3885E+040.4500E-010.7500E-010.1500E-01
  B76          SANDT0.1000E-050.0000E+001.3848E+040.5500E-010.7500E-010.1500E-01
  B77          SANDT0.1000E-050.0000E+001.3812E+040.6500E-010.7500E-010.1500E-01
  B78          SANDT0.1000E-050.0000E+001.3944E+040.7500E-010.7500E-010.1500E-01
  B79          SANDT0.1000E-050.0000E+001.3464E+040.8500E-010.7500E-010.1500E-01
  B80          SANDT0.1000E-050.0000E+001.3463E+040.9500E-010.7500E-010.1500E-01
  B81          SANDT0.1000E-050.0000E+001.3600E+040.5000E-020.8500E-010.1500E-01
  B82          SANDT0.1000E-050.0000E+001.2520E+040.1500E-010.8500E-010.1500E-01
  B83          SANDT0.1000E-050.0000E+001.2781E+040.2500E-010.8500E-010.1500E-01